


 26 29  0  0  0  0  0  0  0  0999 V2000
  -17.0293    1.9627   49.1425 C   0  0  0  0  0  0  0  0  0  0  0  0
  -17.3017    1.4975   50.4508 C   0  0  0  0  0  0  0  0  0  0  0  0
  -16.2596    0.9363   51.1857 C   0  0  0  0  0  0  0  0  0  0  0  0
  -14.9941    0.8278   50.6728 C   0  0  0  0  0  0  0  0  0  0  0  0
  -14.6890    1.2740   49.3910 C   0  0  0  0  0  0  0  0  0  0  0  0
  -15.7208    1.8508   48.6116 C   0  0  0  0  0  0  0  0  0  0  0  0
  -14.0926    0.2262   51.5933 N   0  0  0  0  0  0  0  0  0  0  0  0
  -14.7796   -0.0376   52.6634 C   0  0  0  0  0  0  0  0  0  0  0  0
  -14.1913   -0.6526   53.8093 N   0  0  0  0  0  0  0  0  0  0  0  0
  -16.2307    0.3677   52.5623 C   0  0  0  0  0  0  0  0  0  0  0  0
  -17.2630   -0.7082   52.8763 C   0  0  0  0  0  0  0  0  0  0  0  0
  -17.8077    0.1788   53.9964 C   0  0  0  0  0  0  0  0  0  0  0  0
  -16.7702    1.2555   53.6770 C   0  0  0  0  0  0  0  0  0  0  0  0
  -13.1788   -0.9070   53.8100 H   0  0  0  0  0  0  0  0  0  0  0  0
  -14.7662   -0.8539   54.6569 H   0  0  0  0  0  0  0  0  0  0  0  0
  -19.0336    1.8039   47.6549 C   0  0  0  0  0  0  0  0  0  0  0  0
  -18.0253    2.5400   48.3397 O   0  0  0  0  0  0  0  0  0  0  0  0
  -15.4901    2.3235   47.3105 O   0  0  0  0  0  0  0  0  0  0  0  0
  -14.2162    2.3394   46.6718 C   0  0  0  0  0  0  0  0  0  0  0  0
  -14.2084    1.3208   45.5339 C   0  0  0  0  0  0  0  0  0  0  0  0
  -13.8091   -0.0719   46.0374 C   0  0  0  0  0  0  0  0  0  0  0  0
  -14.7574   -1.0941   45.5522 N   0  0  0  0  0  0  0  0  0  0  0  0
  -14.9178   -1.0246   44.0981 C   0  0  0  0  0  0  0  0  0  0  0  0
  -16.2754   -1.6254   43.7844 C   0  0  0  0  0  0  0  0  0  0  0  0
  -17.0862   -1.4585   45.0580 C   0  0  0  0  0  0  0  0  0  0  0  0
  -16.1101   -0.9238   46.0987 C   0  0  0  0  0  0  0  0  0  0  0  0
 16 17  1  0  0  0
 17  1  1  0  0  0
  1  2  2  0  0  0
  2  3  1  0  0  0
  3  4  2  0  0  0
  4  5  1  0  0  0
  5  6  2  0  0  0
  6 18  1  0  0  0
 18 19  1  0  0  0
 19 20  1  0  0  0
 20 21  1  0  0  0
 21 22  1  0  0  0
 22 23  1  0  0  0
 23 24  1  0  0  0
 24 25  1  0  0  0
 25 26  1  0  0  0
  4  7  1  0  0  0
  7  8  2  0  0  0
  8  9  1  0  0  0
  8 10  1  0  0  0
 10 11  1  0  0  0
 11 12  1  0  0  0
 12 13  1  0  0  0
  6  1  1  0  0  0
 26 22  1  0  0  0
 13 10  1  0  0  0
 10  3  1  0  0  0
  9 14  1  0  0  0
  9 15  1  0  0  0
M  END
> <minimizedAffinity>
-7.54269

> <CNNscore>
0.9428828359

> <CNNaffinity>
7.0586214066

> <CNN_VS>
6.6554532051

> <CNNaffinity_variance>
0.0524887852

$$$$



 26 29  0  0  0  0  0  0  0  0999 V2000
  -11.1005   11.3891   48.8744 C   0  0  0  0  0  0  0  0  0  0  0  0
  -11.5328   12.6703   48.4574 C   0  0  0  0  0  0  0  0  0  0  0  0
  -10.5749   13.5862   48.0277 C   0  0  0  0  0  0  0  0  0  0  0  0
   -9.2414   13.2742   48.0015 C   0  0  0  0  0  0  0  0  0  0  0  0
   -8.7795   12.0252   48.4038 C   0  0  0  0  0  0  0  0  0  0  0  0
   -9.7215   11.0659   48.8476 C   0  0  0  0  0  0  0  0  0  0  0  0
   -8.4474   14.3552   47.5293 N   0  0  0  0  0  0  0  0  0  0  0  0
   -9.2674   15.3268   47.2642 C   0  0  0  0  0  0  0  0  0  0  0  0
   -8.8153   16.5848   46.7637 N   0  0  0  0  0  0  0  0  0  0  0  0
  -10.7129   14.9861   47.5374 C   0  0  0  0  0  0  0  0  0  0  0  0
  -11.4831   15.9484   48.4331 C   0  0  0  0  0  0  0  0  0  0  0  0
  -12.4711   16.1805   47.2895 C   0  0  0  0  0  0  0  0  0  0  0  0
  -11.6950   15.2136   46.3948 C   0  0  0  0  0  0  0  0  0  0  0  0
   -7.7982   16.7518   46.5978 H   0  0  0  0  0  0  0  0  0  0  0  0
   -9.4957   17.3494   46.5587 H   0  0  0  0  0  0  0  0  0  0  0  0
  -13.2590   10.6952   49.9302 C   0  0  0  0  0  0  0  0  0  0  0  0
  -12.0038   10.4119   49.3206 O   0  0  0  0  0  0  0  0  0  0  0  0
   -9.3320    9.7851   49.2688 O   0  0  0  0  0  0  0  0  0  0  0  0
   -7.9834    9.3878   49.5022 C   0  0  0  0  0  0  0  0  0  0  0  0
   -7.9645    7.9660   50.0595 C   0  0  0  0  0  0  0  0  0  0  0  0
   -7.1243    7.0343   49.1771 C   0  0  0  0  0  0  0  0  0  0  0  0
   -7.8712    5.8007   48.8611 N   0  0  0  0  0  0  0  0  0  0  0  0
   -7.4751    5.2563   47.5604 C   0  0  0  0  0  0  0  0  0  0  0  0
   -8.6453    4.4268   47.0653 C   0  0  0  0  0  0  0  0  0  0  0  0
   -9.8631    4.9998   47.7695 C   0  0  0  0  0  0  0  0  0  0  0  0
   -9.3204    6.0194   48.7634 C   0  0  0  0  0  0  0  0  0  0  0  0
 16 17  1  0  0  0
 17  1  1  0  0  0
  1  2  2  0  0  0
  2  3  1  0  0  0
  3  4  2  0  0  0
  4  5  1  0  0  0
  5  6  2  0  0  0
  6 18  1  0  0  0
 18 19  1  0  0  0
 19 20  1  0  0  0
 20 21  1  0  0  0
 21 22  1  0  0  0
 22 23  1  0  0  0
 23 24  1  0  0  0
 24 25  1  0  0  0
 25 26  1  0  0  0
  4  7  1  0  0  0
  7  8  2  0  0  0
  8  9  1  0  0  0
  8 10  1  0  0  0
 10 11  1  0  0  0
 11 12  1  0  0  0
 12 13  1  0  0  0
  6  1  1  0  0  0
 26 22  1  0  0  0
 13 10  1  0  0  0
 10  3  1  0  0  0
  9 14  1  0  0  0
  9 15  1  0  0  0
M  END
> <minimizedAffinity>
-7.61873

> <CNNscore>
0.9374635220

> <CNNaffinity>
6.9874892235

> <CNN_VS>
6.5505161285

> <CNNaffinity_variance>
0.0205637719

$$$$



 26 29  0  0  0  0  0  0  0  0999 V2000
  -11.0402   15.1605   46.9873 C   0  0  0  0  0  0  0  0  0  0  0  0
  -11.4885   14.0208   47.6961 C   0  0  0  0  0  0  0  0  0  0  0  0
  -10.5371   13.1367   48.2004 C   0  0  0  0  0  0  0  0  0  0  0  0
   -9.1949   13.3470   48.0255 C   0  0  0  0  0  0  0  0  0  0  0  0
   -8.7173   14.4559   47.3344 C   0  0  0  0  0  0  0  0  0  0  0  0
   -9.6523   15.3785   46.8061 C   0  0  0  0  0  0  0  0  0  0  0  0
   -8.4098   12.3221   48.6213 N   0  0  0  0  0  0  0  0  0  0  0  0
   -9.2438   11.4847   49.1599 C   0  0  0  0  0  0  0  0  0  0  0  0
   -8.8039   10.3178   49.8542 N   0  0  0  0  0  0  0  0  0  0  0  0
  -10.6911   11.8731   48.9742 C   0  0  0  0  0  0  0  0  0  0  0  0
  -11.6098   10.8155   48.3750 C   0  0  0  0  0  0  0  0  0  0  0  0
  -12.4694   10.8848   49.6376 C   0  0  0  0  0  0  0  0  0  0  0  0
  -11.5448   11.9462   50.2342 C   0  0  0  0  0  0  0  0  0  0  0  0
   -7.7847   10.1105   49.9446 H   0  0  0  0  0  0  0  0  0  0  0  0
   -9.4954    9.6607   50.2780 H   0  0  0  0  0  0  0  0  0  0  0  0
  -13.3181   15.8461   46.2148 C   0  0  0  0  0  0  0  0  0  0  0  0
  -11.9362   16.0972   46.4490 O   0  0  0  0  0  0  0  0  0  0  0  0
   -9.2471   16.5202   46.0976 O   0  0  0  0  0  0  0  0  0  0  0  0
   -8.5444   17.6191   46.6719 C   0  0  0  0  0  0  0  0  0  0  0  0
   -7.0415   17.3844   46.5364 C   0  0  0  0  0  0  0  0  0  0  0  0
   -6.2705   18.0384   47.6899 C   0  0  0  0  0  0  0  0  0  0  0  0
   -4.8384   17.6852   47.6272 N   0  0  0  0  0  0  0  0  0  0  0  0
   -4.6522   16.2414   47.4669 C   0  0  0  0  0  0  0  0  0  0  0  0
   -3.2732   15.9208   48.0129 C   0  0  0  0  0  0  0  0  0  0  0  0
   -2.9690   17.0351   48.9994 C   0  0  0  0  0  0  0  0  0  0  0  0
   -4.1094   18.0351   48.8534 C   0  0  0  0  0  0  0  0  0  0  0  0
 16 17  1  0  0  0
 17  1  1  0  0  0
  1  2  2  0  0  0
  2  3  1  0  0  0
  3  4  2  0  0  0
  4  5  1  0  0  0
  5  6  2  0  0  0
  6 18  1  0  0  0
 18 19  1  0  0  0
 19 20  1  0  0  0
 20 21  1  0  0  0
 21 22  1  0  0  0
 22 23  1  0  0  0
 23 24  1  0  0  0
 24 25  1  0  0  0
 25 26  1  0  0  0
  4  7  1  0  0  0
  7  8  2  0  0  0
  8  9  1  0  0  0
  8 10  1  0  0  0
 10 11  1  0  0  0
 11 12  1  0  0  0
 12 13  1  0  0  0
  6  1  1  0  0  0
 26 22  1  0  0  0
 13 10  1  0  0  0
 10  3  1  0  0  0
  9 14  1  0  0  0
  9 15  1  0  0  0
M  END
> <minimizedAffinity>
-6.59606

> <CNNscore>
0.7630480528

> <CNNaffinity>
6.3305978775

> <CNN_VS>
4.8305501938

> <CNNaffinity_variance>
0.0234709438

$$$$



 26 29  0  0  0  0  0  0  0  0999 V2000
  -11.0207   11.6203   48.9197 C   0  0  0  0  0  0  0  0  0  0  0  0
  -11.5925   12.8383   48.4817 C   0  0  0  0  0  0  0  0  0  0  0  0
  -10.7555   13.7993   47.9188 C   0  0  0  0  0  0  0  0  0  0  0  0
   -9.4086   13.5904   47.7832 C   0  0  0  0  0  0  0  0  0  0  0  0
   -8.8114   12.4059   48.2023 C   0  0  0  0  0  0  0  0  0  0  0  0
   -9.6279   11.4036   48.7799 C   0  0  0  0  0  0  0  0  0  0  0  0
   -8.7515   14.7006   47.1852 N   0  0  0  0  0  0  0  0  0  0  0  0
   -9.6691   15.5891   46.9500 C   0  0  0  0  0  0  0  0  0  0  0  0
   -9.3686   16.8475   46.3471 N   0  0  0  0  0  0  0  0  0  0  0  0
  -11.0514   15.1540   47.3742 C   0  0  0  0  0  0  0  0  0  0  0  0
  -11.8148   16.1036   48.2891 C   0  0  0  0  0  0  0  0  0  0  0  0
  -12.9169   16.1927   47.2330 C   0  0  0  0  0  0  0  0  0  0  0  0
  -12.1472   15.2390   46.3189 C   0  0  0  0  0  0  0  0  0  0  0  0
   -8.3876   17.0829   46.0783 H   0  0  0  0  0  0  0  0  0  0  0  0
  -10.1251   17.5443   46.1689 H   0  0  0  0  0  0  0  0  0  0  0  0
  -13.1897   10.7129   49.7729 C   0  0  0  0  0  0  0  0  0  0  0  0
  -11.7971   10.6034   49.4970 O   0  0  0  0  0  0  0  0  0  0  0  0
   -9.0982   10.1830   49.2262 O   0  0  0  0  0  0  0  0  0  0  0  0
   -8.0807   10.0587   50.2163 C   0  0  0  0  0  0  0  0  0  0  0  0
   -7.1926    8.8624   49.8810 C   0  0  0  0  0  0  0  0  0  0  0  0
   -5.9382    9.2991   49.1139 C   0  0  0  0  0  0  0  0  0  0  0  0
   -4.8425    8.3292   49.3097 N   0  0  0  0  0  0  0  0  0  0  0  0
   -5.3300    7.0909   49.9213 C   0  0  0  0  0  0  0  0  0  0  0  0
   -4.1412    6.4574   50.6197 C   0  0  0  0  0  0  0  0  0  0  0  0
   -3.1925    7.6079   50.9089 C   0  0  0  0  0  0  0  0  0  0  0  0
   -3.7978    8.8228   50.2166 C   0  0  0  0  0  0  0  0  0  0  0  0
 16 17  1  0  0  0
 17  1  1  0  0  0
  1  2  2  0  0  0
  2  3  1  0  0  0
  3  4  2  0  0  0
  4  5  1  0  0  0
  5  6  2  0  0  0
  6 18  1  0  0  0
 18 19  1  0  0  0
 19 20  1  0  0  0
 20 21  1  0  0  0
 21 22  1  0  0  0
 22 23  1  0  0  0
 23 24  1  0  0  0
 24 25  1  0  0  0
 25 26  1  0  0  0
  4  7  1  0  0  0
  7  8  2  0  0  0
  8  9  1  0  0  0
  8 10  1  0  0  0
 10 11  1  0  0  0
 11 12  1  0  0  0
 12 13  1  0  0  0
  6  1  1  0  0  0
 26 22  1  0  0  0
 13 10  1  0  0  0
 10  3  1  0  0  0
  9 14  1  0  0  0
  9 15  1  0  0  0
M  END
> <minimizedAffinity>
-7.49607

> <CNNscore>
0.7546703219

> <CNNaffinity>
6.4351105690

> <CNN_VS>
4.8563871384

> <CNNaffinity_variance>
0.0228384025

$$$$



 26 29  0  0  0  0  0  0  0  0999 V2000
   -8.2137    7.8968   49.5479 C   0  0  0  0  0  0  0  0  0  0  0  0
   -9.3981    8.6624   49.4333 C   0  0  0  0  0  0  0  0  0  0  0  0
   -9.2830   10.0339   49.2171 C   0  0  0  0  0  0  0  0  0  0  0  0
   -8.0621   10.6465   49.1149 C   0  0  0  0  0  0  0  0  0  0  0  0
   -6.8767    9.9264   49.2223 C   0  0  0  0  0  0  0  0  0  0  0  0
   -6.9508    8.5297   49.4423 C   0  0  0  0  0  0  0  0  0  0  0  0
   -8.1816   12.0463   48.8954 N   0  0  0  0  0  0  0  0  0  0  0  0
   -9.4535   12.3068   48.8606 C   0  0  0  0  0  0  0  0  0  0  0  0
   -9.9509   13.6289   48.6551 N   0  0  0  0  0  0  0  0  0  0  0  0
  -10.3232   11.0881   49.0565 C   0  0  0  0  0  0  0  0  0  0  0  0
  -11.3807   11.1734   50.1502 C   0  0  0  0  0  0  0  0  0  0  0  0
  -12.4562   10.9204   49.0932 C   0  0  0  0  0  0  0  0  0  0  0  0
  -11.3912   10.8352   47.9995 C   0  0  0  0  0  0  0  0  0  0  0  0
   -9.2903   14.4270   48.5264 H   0  0  0  0  0  0  0  0  0  0  0  0
  -10.9784   13.8111   48.6315 H   0  0  0  0  0  0  0  0  0  0  0  0
   -8.3596    5.5364   48.7338 C   0  0  0  0  0  0  0  0  0  0  0  0
   -8.2465    6.5106   49.7660 O   0  0  0  0  0  0  0  0  0  0  0  0
   -5.7992    7.7365   49.5614 O   0  0  0  0  0  0  0  0  0  0  0  0
   -4.4692    8.2108   49.3685 C   0  0  0  0  0  0  0  0  0  0  0  0
   -3.6485    7.9402   50.6277 C   0  0  0  0  0  0  0  0  0  0  0  0
   -3.8116    6.4888   51.0962 C   0  0  0  0  0  0  0  0  0  0  0  0
   -2.6170    6.0431   51.8404 N   0  0  0  0  0  0  0  0  0  0  0  0
   -2.7309    6.3546   53.2669 C   0  0  0  0  0  0  0  0  0  0  0  0
   -1.3145    6.4405   53.8044 C   0  0  0  0  0  0  0  0  0  0  0  0
   -0.4538    6.7807   52.5999 C   0  0  0  0  0  0  0  0  0  0  0  0
   -1.3857    6.7096   51.3965 C   0  0  0  0  0  0  0  0  0  0  0  0
 16 17  1  0  0  0
 17  1  1  0  0  0
  1  2  2  0  0  0
  2  3  1  0  0  0
  3  4  2  0  0  0
  4  5  1  0  0  0
  5  6  2  0  0  0
  6 18  1  0  0  0
 18 19  1  0  0  0
 19 20  1  0  0  0
 20 21  1  0  0  0
 21 22  1  0  0  0
 22 23  1  0  0  0
 23 24  1  0  0  0
 24 25  1  0  0  0
 25 26  1  0  0  0
  4  7  1  0  0  0
  7  8  2  0  0  0
  8  9  1  0  0  0
  8 10  1  0  0  0
 10 11  1  0  0  0
 11 12  1  0  0  0
 12 13  1  0  0  0
  6  1  1  0  0  0
 26 22  1  0  0  0
 13 10  1  0  0  0
 10  3  1  0  0  0
  9 14  1  0  0  0
  9 15  1  0  0  0
M  END
> <minimizedAffinity>
-6.31879

> <CNNscore>
0.6654589176

> <CNNaffinity>
6.1138157845

> <CNN_VS>
4.0684933662

> <CNNaffinity_variance>
0.0112511842

$$$$



 26 29  0  0  0  0  0  0  0  0999 V2000
   -8.2793    7.8843   49.4961 C   0  0  0  0  0  0  0  0  0  0  0  0
   -9.4508    8.6736   49.4136 C   0  0  0  0  0  0  0  0  0  0  0  0
   -9.3140   10.0427   49.1948 C   0  0  0  0  0  0  0  0  0  0  0  0
   -8.0843   10.6308   49.0601 C   0  0  0  0  0  0  0  0  0  0  0  0
   -6.9111    9.8870   49.1354 C   0  0  0  0  0  0  0  0  0  0  0  0
   -7.0073    8.4919   49.3568 C   0  0  0  0  0  0  0  0  0  0  0  0
   -8.1816   12.0329   48.8443 N   0  0  0  0  0  0  0  0  0  0  0  0
   -9.4484   12.3189   48.8438 C   0  0  0  0  0  0  0  0  0  0  0  0
   -9.9246   13.6508   48.6522 N   0  0  0  0  0  0  0  0  0  0  0  0
  -10.3369   11.1177   49.0626 C   0  0  0  0  0  0  0  0  0  0  0  0
  -11.3627   11.2231   50.1842 C   0  0  0  0  0  0  0  0  0  0  0  0
  -12.4710   10.9926   49.1564 C   0  0  0  0  0  0  0  0  0  0  0  0
  -11.4377   10.8871   48.0345 C   0  0  0  0  0  0  0  0  0  0  0  0
   -9.2519   14.4357   48.5061 H   0  0  0  0  0  0  0  0  0  0  0  0
  -10.9485   13.8536   48.6562 H   0  0  0  0  0  0  0  0  0  0  0  0
   -8.4815    5.5273   48.6842 C   0  0  0  0  0  0  0  0  0  0  0  0
   -8.3340    6.4989   49.7145 O   0  0  0  0  0  0  0  0  0  0  0  0
   -5.8690    7.6757   49.4447 O   0  0  0  0  0  0  0  0  0  0  0  0
   -4.5308    8.1615   49.5095 C   0  0  0  0  0  0  0  0  0  0  0  0
   -3.7946    7.4642   50.6515 C   0  0  0  0  0  0  0  0  0  0  0  0
   -3.6486    8.3897   51.8659 C   0  0  0  0  0  0  0  0  0  0  0  0
   -3.9069    9.7930   51.4868 N   0  0  0  0  0  0  0  0  0  0  0  0
   -2.6899   10.6025   51.5790 C   0  0  0  0  0  0  0  0  0  0  0  0
   -3.1403   12.0375   51.7800 C   0  0  0  0  0  0  0  0  0  0  0  0
   -4.5245   11.9354   52.3973 C   0  0  0  0  0  0  0  0  0  0  0  0
   -4.8781   10.4536   52.3687 C   0  0  0  0  0  0  0  0  0  0  0  0
 16 17  1  0  0  0
 17  1  1  0  0  0
  1  2  2  0  0  0
  2  3  1  0  0  0
  3  4  2  0  0  0
  4  5  1  0  0  0
  5  6  2  0  0  0
  6 18  1  0  0  0
 18 19  1  0  0  0
 19 20  1  0  0  0
 20 21  1  0  0  0
 21 22  1  0  0  0
 22 23  1  0  0  0
 23 24  1  0  0  0
 24 25  1  0  0  0
 25 26  1  0  0  0
  4  7  1  0  0  0
  7  8  2  0  0  0
  8  9  1  0  0  0
  8 10  1  0  0  0
 10 11  1  0  0  0
 11 12  1  0  0  0
 12 13  1  0  0  0
  6  1  1  0  0  0
 26 22  1  0  0  0
 13 10  1  0  0  0
 10  3  1  0  0  0
  9 14  1  0  0  0
  9 15  1  0  0  0
M  END
> <minimizedAffinity>
-6.33546

> <CNNscore>
0.6404849291

> <CNNaffinity>
6.2300577164

> <CNN_VS>
3.9902579784

> <CNNaffinity_variance>
0.0176160205

$$$$



 26 29  0  0  0  0  0  0  0  0999 V2000
   -2.1998    5.9419   51.8157 C   0  0  0  0  0  0  0  0  0  0  0  0
   -1.9642    5.0762   52.9100 C   0  0  0  0  0  0  0  0  0  0  0  0
   -0.9562    5.4076   53.8129 C   0  0  0  0  0  0  0  0  0  0  0  0
   -0.1996    6.5396   53.6634 C   0  0  0  0  0  0  0  0  0  0  0  0
   -0.4024    7.4139   52.6005 C   0  0  0  0  0  0  0  0  0  0  0  0
   -1.4177    7.1127   51.6606 C   0  0  0  0  0  0  0  0  0  0  0  0
    0.7671    6.6784   54.6969 N   0  0  0  0  0  0  0  0  0  0  0  0
    0.6196    5.6528   55.4799 C   0  0  0  0  0  0  0  0  0  0  0  0
    1.4318    5.4603   56.6378 N   0  0  0  0  0  0  0  0  0  0  0  0
   -0.4771    4.7125   55.0403 C   0  0  0  0  0  0  0  0  0  0  0  0
   -0.0969    3.2450   54.8872 C   0  0  0  0  0  0  0  0  0  0  0  0
   -1.1556    2.8891   55.9314 C   0  0  0  0  0  0  0  0  0  0  0  0
   -1.5338    4.3630   56.0810 C   0  0  0  0  0  0  0  0  0  0  0  0
    2.1739    6.1526   56.8826 H   0  0  0  0  0  0  0  0  0  0  0  0
    1.2925    4.6269   57.2506 H   0  0  0  0  0  0  0  0  0  0  0  0
   -4.5041    6.2405   50.8903 C   0  0  0  0  0  0  0  0  0  0  0  0
   -3.1966    5.6773   50.8638 O   0  0  0  0  0  0  0  0  0  0  0  0
   -1.6815    7.9461   50.5627 O   0  0  0  0  0  0  0  0  0  0  0  0
   -1.9844    9.3354   50.6586 C   0  0  0  0  0  0  0  0  0  0  0  0
   -3.4391    9.5646   50.2541 C   0  0  0  0  0  0  0  0  0  0  0  0
   -4.3119    9.8829   51.4746 C   0  0  0  0  0  0  0  0  0  0  0  0
   -3.4898    9.9594   52.6985 N   0  0  0  0  0  0  0  0  0  0  0  0
   -3.8694    8.9228   53.6610 C   0  0  0  0  0  0  0  0  0  0  0  0
   -3.4554    9.4318   55.0292 C   0  0  0  0  0  0  0  0  0  0  0  0
   -3.4206   10.9445   54.8952 C   0  0  0  0  0  0  0  0  0  0  0  0
   -3.6508   11.2308   53.4164 C   0  0  0  0  0  0  0  0  0  0  0  0
 16 17  1  0  0  0
 17  1  1  0  0  0
  1  2  2  0  0  0
  2  3  1  0  0  0
  3  4  2  0  0  0
  4  5  1  0  0  0
  5  6  2  0  0  0
  6 18  1  0  0  0
 18 19  1  0  0  0
 19 20  1  0  0  0
 20 21  1  0  0  0
 21 22  1  0  0  0
 22 23  1  0  0  0
 23 24  1  0  0  0
 24 25  1  0  0  0
 25 26  1  0  0  0
  4  7  1  0  0  0
  7  8  2  0  0  0
  8  9  1  0  0  0
  8 10  1  0  0  0
 10 11  1  0  0  0
 11 12  1  0  0  0
 12 13  1  0  0  0
  6  1  1  0  0  0
 26 22  1  0  0  0
 13 10  1  0  0  0
 10  3  1  0  0  0
  9 14  1  0  0  0
  9 15  1  0  0  0
M  END
> <minimizedAffinity>
-5.08276

> <CNNscore>
0.5375251770

> <CNNaffinity>
5.6601629257

> <CNN_VS>
3.0424799919

> <CNNaffinity_variance>
0.0189510323

$$$$



 26 29  0  0  0  0  0  0  0  0999 V2000
   -9.2446   15.4074   47.8442 C   0  0  0  0  0  0  0  0  0  0  0  0
   -8.7873   14.1005   48.1360 C   0  0  0  0  0  0  0  0  0  0  0  0
   -9.7313   13.0907   48.3094 C   0  0  0  0  0  0  0  0  0  0  0  0
  -11.0749   13.3356   48.2042 C   0  0  0  0  0  0  0  0  0  0  0  0
  -11.5614   14.6073   47.9185 C   0  0  0  0  0  0  0  0  0  0  0  0
  -10.6340   15.6613   47.7352 C   0  0  0  0  0  0  0  0  0  0  0  0
  -11.8516   12.1639   48.4182 N   0  0  0  0  0  0  0  0  0  0  0  0
  -11.0110   11.2022   48.6531 C   0  0  0  0  0  0  0  0  0  0  0  0
  -11.4413    9.8667   48.9153 N   0  0  0  0  0  0  0  0  0  0  0  0
   -9.5671   11.6428   48.6190 C   0  0  0  0  0  0  0  0  0  0  0  0
   -8.7200   11.2991   49.8380 C   0  0  0  0  0  0  0  0  0  0  0  0
   -7.7812   10.5054   48.9288 C   0  0  0  0  0  0  0  0  0  0  0  0
   -8.6344   10.8535   47.7087 C   0  0  0  0  0  0  0  0  0  0  0  0
  -12.4587    9.6323   48.9234 H   0  0  0  0  0  0  0  0  0  0  0  0
  -10.7447    9.1120   49.1012 H   0  0  0  0  0  0  0  0  0  0  0  0
   -7.0741   16.3615   47.0480 C   0  0  0  0  0  0  0  0  0  0  0  0
   -8.3564   16.4777   47.6559 O   0  0  0  0  0  0  0  0  0  0  0  0
  -11.0484   16.9703   47.4446 O   0  0  0  0  0  0  0  0  0  0  0  0
  -11.7027   17.8339   48.3705 C   0  0  0  0  0  0  0  0  0  0  0  0
  -13.1739   17.9680   47.9837 C   0  0  0  0  0  0  0  0  0  0  0  0
  -14.0763   17.1938   48.9527 C   0  0  0  0  0  0  0  0  0  0  0  0
  -14.9025   16.2108   48.2243 N   0  0  0  0  0  0  0  0  0  0  0  0
  -14.8650   16.4495   46.7798 C   0  0  0  0  0  0  0  0  0  0  0  0
  -16.1385   15.8525   46.2104 C   0  0  0  0  0  0  0  0  0  0  0  0
  -17.1230   15.8427   47.3672 C   0  0  0  0  0  0  0  0  0  0  0  0
  -16.3236   16.2761   48.5899 C   0  0  0  0  0  0  0  0  0  0  0  0
 16 17  1  0  0  0
 17  1  1  0  0  0
  1  2  2  0  0  0
  2  3  1  0  0  0
  3  4  2  0  0  0
  4  5  1  0  0  0
  5  6  2  0  0  0
  6 18  1  0  0  0
 18 19  1  0  0  0
 19 20  1  0  0  0
 20 21  1  0  0  0
 21 22  1  0  0  0
 22 23  1  0  0  0
 23 24  1  0  0  0
 24 25  1  0  0  0
 25 26  1  0  0  0
  4  7  1  0  0  0
  7  8  2  0  0  0
  8  9  1  0  0  0
  8 10  1  0  0  0
 10 11  1  0  0  0
 11 12  1  0  0  0
 12 13  1  0  0  0
  6  1  1  0  0  0
 26 22  1  0  0  0
 13 10  1  0  0  0
 10  3  1  0  0  0
  9 14  1  0  0  0
  9 15  1  0  0  0
M  END
> <minimizedAffinity>
-5.61787

> <CNNscore>
0.5178986192

> <CNNaffinity>
6.3251829147

> <CNN_VS>
3.2758035660

> <CNNaffinity_variance>
0.0058926581

$$$$



 26 29  0  0  0  0  0  0  0  0999 V2000
  -17.4803    2.7606   48.3177 C   0  0  0  0  0  0  0  0  0  0  0  0
  -16.5536    2.2006   49.2287 C   0  0  0  0  0  0  0  0  0  0  0  0
  -17.0440    1.5699   50.3701 C   0  0  0  0  0  0  0  0  0  0  0  0
  -18.3873    1.4829   50.6235 C   0  0  0  0  0  0  0  0  0  0  0  0
  -19.3275    2.0214   49.7510 C   0  0  0  0  0  0  0  0  0  0  0  0
  -18.8696    2.6709   48.5792 C   0  0  0  0  0  0  0  0  0  0  0  0
  -18.6599    0.7997   51.8404 N   0  0  0  0  0  0  0  0  0  0  0  0
  -17.5093    0.4645   52.3409 C   0  0  0  0  0  0  0  0  0  0  0  0
  -17.3971   -0.2447   53.5745 N   0  0  0  0  0  0  0  0  0  0  0  0
  -16.3357    0.8973   51.4949 C   0  0  0  0  0  0  0  0  0  0  0  0
  -15.2504    1.7047   52.1960 C   0  0  0  0  0  0  0  0  0  0  0  0
  -14.2387    0.6216   51.8199 C   0  0  0  0  0  0  0  0  0  0  0  0
  -15.3314   -0.1845   51.1172 C   0  0  0  0  0  0  0  0  0  0  0  0
  -18.2531   -0.5130   54.1085 H   0  0  0  0  0  0  0  0  0  0  0  0
  -16.4597   -0.5021   53.9547 H   0  0  0  0  0  0  0  0  0  0  0  0
  -16.5304    2.7502   46.0041 C   0  0  0  0  0  0  0  0  0  0  0  0
  -17.0650    3.4119   47.1458 O   0  0  0  0  0  0  0  0  0  0  0  0
  -19.7571    3.2384   47.6520 O   0  0  0  0  0  0  0  0  0  0  0  0
  -20.1509    4.6081   47.6458 C   0  0  0  0  0  0  0  0  0  0  0  0
  -20.7492    4.9560   46.2845 C   0  0  0  0  0  0  0  0  0  0  0  0
  -20.1508    6.2548   45.7298 C   0  0  0  0  0  0  0  0  0  0  0  0
  -19.7374    6.0802   44.3233 N   0  0  0  0  0  0  0  0  0  0  0  0
  -20.8978    5.9858   43.4347 C   0  0  0  0  0  0  0  0  0  0  0  0
  -20.4381    5.2268   42.2038 C   0  0  0  0  0  0  0  0  0  0  0  0
  -19.2531    4.3982   42.6690 C   0  0  0  0  0  0  0  0  0  0  0  0
  -18.9783    4.8427   44.1003 C   0  0  0  0  0  0  0  0  0  0  0  0
 16 17  1  0  0  0
 17  1  1  0  0  0
  1  2  2  0  0  0
  2  3  1  0  0  0
  3  4  2  0  0  0
  4  5  1  0  0  0
  5  6  2  0  0  0
  6 18  1  0  0  0
 18 19  1  0  0  0
 19 20  1  0  0  0
 20 21  1  0  0  0
 21 22  1  0  0  0
 22 23  1  0  0  0
 23 24  1  0  0  0
 24 25  1  0  0  0
 25 26  1  0  0  0
  4  7  1  0  0  0
  7  8  2  0  0  0
  8  9  1  0  0  0
  8 10  1  0  0  0
 10 11  1  0  0  0
 11 12  1  0  0  0
 12 13  1  0  0  0
  6  1  1  0  0  0
 26 22  1  0  0  0
 13 10  1  0  0  0
 10  3  1  0  0  0
  9 14  1  0  0  0
  9 15  1  0  0  0
M  END
> <minimizedAffinity>
-6.41924

> <CNNscore>
0.4448484480

> <CNNaffinity>
5.7692289352

> <CNN_VS>
2.5664324760

> <CNNaffinity_variance>
0.0137906522

$$$$
